*LTspice
*
*ZXCT1080
*Voltage output current monitor
*AE01001080
*
*netlist
.include ZXCT1080.cir
*
*params
.param VSOURCE=60
.param ILOAD=3
.param VSUPPLY=5
.param RSENSE=0.1
.param RF=100
.param RN=10K
*
*load regulation
*.dc I1 1 {ILOAD} 1m
*
*line regulation
.dc V1 0 {VSOURCE} .01
*
*transient response
*.tran 0 51u .01u startup
*
*.backanno
